models/IEEE_8500_Bus-G/em1/Transformers.dss
New "Transformer.t226195333c" XfmrCode=CT10 buses=[l2801909.3, x2801909c.1.0, x2801909c.0.2, ]
New "Transformer.t5223658a" XfmrCode=CT5 buses=[l2823592.1, x2823592a.1.0, x2823592a.0.2, ]
New "Transformer.t5223660c" XfmrCode=CT15 buses=[l3160863.3, x3160863c.1.0, x3160863c.0.2, ]
New "Transformer.t5223661c" XfmrCode=CT15 buses=[l2730108.3, x2730108c.1.0, x2730108c.0.2, ]
New "Transformer.t5223662c" XfmrCode=CT37 buses=[l2786204.3, x2786204c.1.0, x2786204c.0.2, ]
New "Transformer.t5223663c" XfmrCode=CT10 buses=[l2936216.3, x2936216c.1.0, x2936216c.0.2, ]
New "Transformer.t5346639c" XfmrCode=CT15 buses=[l2992556.3, x2992556c.1.0, x2992556c.0.2, ]
New "Transformer.t5251867c" XfmrCode=CT25 buses=[l2861157.3, x2861157c.1.0, x2861157c.0.2, ]
New "Transformer.t227411655c" XfmrCode=CT25 buses=[l2806553.3, x2806553c.1.0, x2806553c.0.2, ]
New "Transformer.t5251865c" XfmrCode=CT15 buses=[l3142050.3, x3142050c.1.0, x3142050c.0.2, ]
New "Transformer.t5251862c" XfmrCode=CT15 buses=[l3254873.3, x3254873c.1.0, x3254873c.0.2, ]
New "Transformer.t5251863c" XfmrCode=CT25 buses=[l2745811.3, x2745811c.1.0, x2745811c.0.2, ]
New "Transformer.t226195194c" XfmrCode=CT25 buses=[l3027124.3, x3027124c.1.0, x3027124c.0.2, ]
New "Transformer.t28128517c" XfmrCode=CT25 buses=[l3048890.3, x3048890c.1.0, x3048890c.0.2, ]
New "Transformer.t28128464c" XfmrCode=CT25 buses=[l3048889.3, x3048889c.1.0, x3048889c.0.2, ]
New "Transformer.t5251859c" XfmrCode=CT25 buses=[l2952007.3, x2952007c.1.0, x2952007c.0.2, ]
New "Transformer.t5251858c" XfmrCode=CT25 buses=[l2861158.3, x2861158c.1.0, x2861158c.0.2, ]
New "Transformer.t5251857c" XfmrCode=CT15 buses=[l3064514.3, x3064514c.1.0, x3064514c.0.2, ]
New "Transformer.t5251856c" XfmrCode=CT15 buses=[l3048888.3, x3048888c.1.0, x3048888c.0.2, ]
New "Transformer.t226010605c" XfmrCode=CT15 buses=[l2764411.3, x2764411c.1.0, x2764411c.0.2, ]
New "Transformer.t5356791c" XfmrCode=CT37 buses=[l2767343.3, x2767343c.1.0, x2767343c.0.2, ]
New "Transformer.t5356790c" XfmrCode=CT10 buses=[l2804957.3, x2804957c.1.0, x2804957c.0.2, ]
New "Transformer.t5356789c" XfmrCode=CT15 buses=[l3048937.3, x3048937c.1.0, x3048937c.0.2, ]
New "Transformer.t5356788c" XfmrCode=CT10 buses=[l3176661.3, x3176661c.1.0, x3176661c.0.2, ]
New "Transformer.t5356787c" XfmrCode=CT25 buses=[l2970804.3, x2970804c.1.0, x2970804c.0.2, ]
New "Transformer.t225533423c" XfmrCode=CT15 buses=[l2891575.3, x2891575c.1.0, x2891575c.0.2, ]
New "Transformer.t21386442c" XfmrCode=CT37 buses=[l3179637.3, x3179637c.1.0, x3179637c.0.2, ]
New "Transformer.t228314460c" XfmrCode=CT25 buses=[l3253570.3, x3253570c.1.0, x3253570c.0.2, ]
New "Transformer.t227411650c" XfmrCode=CT25 buses=[l2937757.3, x2937757c.1.0, x2937757c.0.2, ]
New "Transformer.t5262075c" XfmrCode=CT25 buses=[l3067448.3, x3067448c.1.0, x3067448c.0.2, ]
New "Transformer.t225906836c" XfmrCode=CT25 buses=[l2763407.3, x2763407c.1.0, x2763407c.0.2, ]
New "Transformer.t5223655c" XfmrCode=CT15 buses=[l2936268.3, x2936268c.1.0, x2936268c.0.2, ]
New "Transformer.t21386877a" XfmrCode=CT15 buses=[l2823611.1, x2823611a.1.0, x2823611a.0.2, ]
New "Transformer.t0107636a" XfmrCode=CT25 buses=[l3030204.1, x3030204a.1.0, x3030204a.0.2, ]
New "Transformer.t226264795a" XfmrCode=CT25 buses=[l3139366.1, x3139366a.1.0, x3139366a.0.2, ]
New "Transformer.t227944551c" XfmrCode=CT250 buses=[l3234149.3, x3234149c.1.0, x3234149c.0.2, ]
New "Transformer.t227944551b" XfmrCode=CT250 buses=[l3234149.2, x3234149b.1.0, x3234149b.0.2, ]
New "Transformer.t227944551a" XfmrCode=CT250 buses=[l3234149.1, x3234149a.1.0, x3234149a.0.2, ]
New "Transformer.t5260461b" XfmrCode=CT25 buses=[l2861223.2, x2861223b.1.0, x2861223b.0.2, ]
New "Transformer.t28129466c" XfmrCode=CT50 buses=[l3011293.3, x3011293c.1.0, x3011293c.0.2, ]
New "Transformer.t28129466b" XfmrCode=CT50 buses=[l3011293.2, x3011293b.1.0, x3011293b.0.2, ]
New "Transformer.t28129466a" XfmrCode=CT50 buses=[l3011293.1, x3011293a.1.0, x3011293a.0.2, ]
New "Transformer.t28129923c" XfmrCode=CT15 buses=[l3123509.3, x3123509c.1.0, x3123509c.0.2, ]
New "Transformer.t5157715b" XfmrCode=CT10 buses=[l2936275.2, x2936275b.1.0, x2936275b.0.2, ]
New "Transformer.t5157716b" XfmrCode=CT25 buses=[l3179674.2, x3179674b.1.0, x3179674b.0.2, ]
New "Transformer.t5260463b" XfmrCode=CT15 buses=[l3086075.2, x3086075b.1.0, x3086075b.0.2, ]
New "Transformer.t5157717b" XfmrCode=CT15 buses=[l2748840.2, x2748840b.1.0, x2748840b.0.2, ]
New "Transformer.t5157718b" XfmrCode=CT25 buses=[l3142099.2, x3142099b.1.0, x3142099b.0.2, ]
New "Transformer.t5260457b" XfmrCode=CT10 buses=[l3086079.2, x3086079b.1.0, x3086079b.0.2, ]
New "Transformer.t5260458b" XfmrCode=CT10 buses=[l2936276.2, x2936276b.1.0, x2936276b.0.2, ]
New "Transformer.t5260630b" XfmrCode=CT15 buses=[l2973833.2, x2973833b.1.0, x2973833b.0.2, ]
New "Transformer.t5260627a" XfmrCode=CT37 buses=[l2992656.1, x2992656a.1.0, x2992656a.0.2, ]
New "Transformer.t5260467a" XfmrCode=CT15 buses=[l3104856.1, x3104856a.1.0, x3104856a.0.2, ]
New "Transformer.t5260464a" XfmrCode=CT37 buses=[l2730187.1, x2730187a.1.0, x2730187a.0.2, ]
New "Transformer.t28150292a" XfmrCode=CT15 buses=[l2839305.1, x2839305a.1.0, x2839305a.0.2, ]
New "Transformer.t5260648a" XfmrCode=CT25 buses=[l2898522.1, x2898522a.1.0, x2898522a.0.2, ]
New "Transformer.t5260650a" XfmrCode=CT25 buses=[l2692661.1, x2692661a.1.0, x2692661a.0.2, ]
New "Transformer.t5260631a" XfmrCode=CT15 buses=[l2786266.1, x2786266a.1.0, x2786266a.0.2, ]
New "Transformer.t5260634a" XfmrCode=CT15 buses=[l2842383.1, x2842383a.1.0, x2842383a.0.2, ]
New "Transformer.t5260637c" XfmrCode=CT10 buses=[l2842384.3, x2842384c.1.0, x2842384c.0.2, ]
New "Transformer.t5260638c" XfmrCode=CT25 buses=[l3160871.3, x3160871c.1.0, x3160871c.0.2, ]
New "Transformer.t5260639c" XfmrCode=CT25 buses=[l3030203.3, x3030203c.1.0, x3030203c.0.2, ]
New "Transformer.t5260640c" XfmrCode=CT15 buses=[l3179673.3, x3179673c.1.0, x3179673c.0.2, ]
New "Transformer.t5260641b" XfmrCode=CT37 buses=[l3048965.2, x3048965b.1.0, x3048965b.0.2, ]
New "Transformer.t5260643a" XfmrCode=CT50 buses=[l2692660.1, x2692660a.1.0, x2692660a.0.2, ]
New "Transformer.t21243817a" XfmrCode=CT15 buses=[l2955076.1, x2955076a.1.0, x2955076a.0.2, ]
New "Transformer.t5260543c" XfmrCode=CT25 buses=[l2955077.3, x2955077c.1.0, x2955077c.0.2, ]
New "Transformer.t5260551c" XfmrCode=CT37 buses=[l3160872.3, x3160872c.1.0, x3160872c.0.2, ]
New "Transformer.t5260558c" XfmrCode=CT10 buses=[l3160861.3, x3160861c.1.0, x3160861c.0.2, ]
New "Transformer.t5260562a" XfmrCode=CT37 buses=[l3251799.1, x3251799a.1.0, x3251799a.0.2, ]
New "Transformer.t226194419c" XfmrCode=CT25 buses=[l3214071.3, x3214071c.1.0, x3214071c.0.2, ]
New "Transformer.t5260572c" XfmrCode=CT15 buses=[l3236004.3, x3236004c.1.0, x3236004c.0.2, ]
New "Transformer.t5260567c" XfmrCode=CT15 buses=[l2936211.3, x2936211c.1.0, x2936211c.0.2, ]
New "Transformer.t5260568c" XfmrCode=CT15 buses=[l2842329.3, x2842329c.1.0, x2842329c.0.2, ]
New "Transformer.t226194421c" XfmrCode=CT25 buses=[l3214069.3, x3214069c.1.0, x3214069c.0.2, ]
New "Transformer.t21474711c" XfmrCode=CT15 buses=[l2861197.3, x2861197c.1.0, x2861197c.0.2, ]
New "Transformer.t5260573c" XfmrCode=CT15 buses=[l3160896.3, x3160896c.1.0, x3160896c.0.2, ]
New "Transformer.t21386065c" XfmrCode=CT25 buses=[l2917255.3, x2917255c.1.0, x2917255c.0.2, ]
New "Transformer.t5260569c" XfmrCode=CT25 buses=[l3104796.3, x3104796c.1.0, x3104796c.0.2, ]
New "Transformer.t5260574c" XfmrCode=CT25 buses=[l3123452.3, x3123452c.1.0, x3123452c.0.2, ]
New "Transformer.t5260577c" XfmrCode=CT37 buses=[l2767341.3, x2767341c.1.0, x2767341c.0.2, ]
New "Transformer.t5260598a" XfmrCode=CT37 buses=[l3067478.1, x3067478a.1.0, x3067478a.0.2, ]
New "Transformer.t5260601c" XfmrCode=CT15 buses=[l2730149.3, x2730149c.1.0, x2730149c.0.2, ]
New "Transformer.t5260602b" XfmrCode=CT15 buses=[l2989566.2, x2989566b.1.0, x2989566b.0.2, ]
New "Transformer.t5337614b" XfmrCode=CT25 buses=[l2952003.2, x2952003b.1.0, x2952003b.0.2, ]
New "Transformer.t227760021c" XfmrCode=CT50 buses=[l2803199.3, x2803199c.1.0, x2803199c.0.2, ]
New "Transformer.t227760021b" XfmrCode=CT50 buses=[l2803199.2, x2803199b.1.0, x2803199b.0.2, ]
New "Transformer.t227760021a" XfmrCode=CT50 buses=[l2803199.1, x2803199a.1.0, x2803199a.0.2, ]
New "Transformer.t21482181a" XfmrCode=CT25 buses=[l3254237.1, x3254237a.1.0, x3254237a.0.2, ]
New "Transformer.t227187012c" XfmrCode=CT15 buses=[l2896685.3, x2896685c.1.0, x2896685c.0.2, ]
New "Transformer.t227187012b" XfmrCode=CT15 buses=[l2896685.2, x2896685b.1.0, x2896685b.0.2, ]
New "Transformer.t227187012a" XfmrCode=CT15 buses=[l2896685.1, x2896685a.1.0, x2896685a.0.2, ]
New "Transformer.t5337619c" XfmrCode=CT25 buses=[l2990826.3, x2990826c.1.0, x2990826c.0.2, ]
New "Transformer.t5337619b" XfmrCode=CT25 buses=[l2990826.2, x2990826b.1.0, x2990826b.0.2, ]
New "Transformer.t5337619a" XfmrCode=CT25 buses=[l2990826.1, x2990826a.1.0, x2990826a.0.2, ]
New "Transformer.t5337729c" XfmrCode=CT10 buses=[l2728247.3, x2728247c.1.0, x2728247c.0.2, ]
New "Transformer.t5337729b" XfmrCode=CT25 buses=[l2728247.2, x2728247b.1.0, x2728247b.0.2, ]
New "Transformer.t5337729a" XfmrCode=CT10 buses=[l2728247.1, x2728247a.1.0, x2728247a.0.2, ]
New "Transformer.t227921427c" XfmrCode=CT50 buses=[l2915542.3, x2915542c.1.0, x2915542c.0.2, ]
New "Transformer.t227921427b" XfmrCode=CT50 buses=[l2915542.2, x2915542b.1.0, x2915542b.0.2, ]
New "Transformer.t227921427a" XfmrCode=CT50 buses=[l2915542.1, x2915542a.1.0, x2915542a.0.2, ]
New "Transformer.t227760024c" XfmrCode=CT50 buses=[l3215203.3, x3215203c.1.0, x3215203c.0.2, ]
New "Transformer.t227760024b" XfmrCode=CT50 buses=[l3215203.2, x3215203b.1.0, x3215203b.0.2, ]
New "Transformer.t227760024a" XfmrCode=CT50 buses=[l3215203.1, x3215203a.1.0, x3215203a.0.2, ]
New "Transformer.t226308710b" XfmrCode=CT75 buses=[l2708744.2, x2708744b.1.0, x2708744b.0.2, ]
New "Transformer.t226308716b" XfmrCode=CT75 buses=[l2690187.2, x2690187b.1.0, x2690187b.0.2, ]
New "Transformer.t226308719b" XfmrCode=CT75 buses=[l3027670.2, x3027670b.1.0, x3027670b.0.2, ]
New "Transformer.t226308725b" XfmrCode=CT75 buses=[l2802480.2, x2802480b.1.0, x2802480b.0.2, ]
New "Transformer.t226308723b" XfmrCode=CT37 buses=[l3252336.2, x3252336b.1.0, x3252336b.0.2, ]
New "Transformer.t226308727b" XfmrCode=CT50 buses=[l3233413.2, x3233413b.1.0, x3233413b.0.2, ]
New "Transformer.t226308729b" XfmrCode=CT75 buses=[l3102286.2, x3102286b.1.0, x3102286b.0.2, ]
New "Transformer.t226308717a" XfmrCode=CT50 buses=[l3233412.1, x3233412a.1.0, x3233412a.0.2, ]
New "Transformer.t226308720a" XfmrCode=CT75 buses=[l2821087.1, x2821087a.1.0, x2821087a.0.2, ]
New "Transformer.t226308721a" XfmrCode=CT50 buses=[l2990098.1, x2990098a.1.0, x2990098a.0.2, ]
New "Transformer.t226308728a" XfmrCode=CT37 buses=[l3027671.1, x3027671a.1.0, x3027671a.0.2, ]
New "Transformer.t226308730a" XfmrCode=CT75 buses=[l2802481.1, x2802481a.1.0, x2802481a.0.2, ]
New "Transformer.t226308731a" XfmrCode=CT50 buses=[l3214549.1, x3214549a.1.0, x3214549a.0.2, ]
New "Transformer.t228001810a" XfmrCode=CT25 buses=[l2859403.1, x2859403a.1.0, x2859403a.0.2, ]
New "Transformer.t5260605a" XfmrCode=CT50 buses=[l2973791.1, x2973791a.1.0, x2973791a.0.2, ]
New "Transformer.t5251828b" XfmrCode=CT15 buses=[l3179650.2, x3179650b.1.0, x3179650b.0.2, ]
New "Transformer.t226194826a" XfmrCode=CT25 buses=[l3232902.1, x3232902a.1.0, x3232902a.0.2, ]
New "Transformer.t226197070a" XfmrCode=CT25 buses=[l2933135.1, x2933135a.1.0, x2933135a.0.2, ]
New "Transformer.t5356814c" XfmrCode=CT25 buses=[l2730106.3, x2730106c.1.0, x2730106c.0.2, ]
New "Transformer.t5356810c" XfmrCode=CT10 buses=[l3142049.3, x3142049c.1.0, x3142049c.0.2, ]
New "Transformer.t5328367c" XfmrCode=CT10 buses=[l3104830.3, x3104830c.1.0, x3104830c.0.2, ]
New "Transformer.t226194865a" XfmrCode=CT25 buses=[l3027122.1, x3027122a.1.0, x3027122a.0.2, ]
New "Transformer.t228622562a" XfmrCode=CT15 buses=[l3108449.1, x3108449a.1.0, x3108449a.0.2, ]
New "Transformer.t227895952a" XfmrCode=CT25 buses=[l3065665.1, x3065665a.1.0, x3065665a.0.2, ]
New "Transformer.t5356800a" XfmrCode=CT25 buses=[l3235946.1, x3235946a.1.0, x3235946a.0.2, ]
New "Transformer.t5356801a" XfmrCode=CT15 buses=[l3011229.1, x3011229a.1.0, x3011229a.0.2, ]
New "Transformer.t5356802a" XfmrCode=CT25 buses=[l2767342.1, x2767342a.1.0, x2767342a.0.2, ]
New "Transformer.t5356803a" XfmrCode=CT25 buses=[l2748780.1, x2748780a.1.0, x2748780a.0.2, ]
New "Transformer.t5356804a" XfmrCode=CT25 buses=[l2823544.1, x2823544a.1.0, x2823544a.0.2, ]
New "Transformer.t5356805a" XfmrCode=CT15 buses=[l3195321.1, x3195321a.1.0, x3195321a.0.2, ]
New "Transformer.t5356808a" XfmrCode=CT37 buses=[l3101782.1, x3101782a.1.0, x3101782a.0.2, ]
New "Transformer.t5356807a" XfmrCode=CT25 buses=[l2823545.1, x2823545a.1.0, x2823545a.0.2, ]
New "Transformer.t21382813a" XfmrCode=CT37 buses=[l2748781.1, x2748781a.1.0, x2748781a.0.2, ]
New "Transformer.t21469911a" XfmrCode=CT25 buses=[l2955047.1, x2955047a.1.0, x2955047a.0.2, ]
New "Transformer.t5328365b" XfmrCode=CT37 buses=[l3179646.2, x3179646b.1.0, x3179646b.0.2, ]
New "Transformer.t21380325b" XfmrCode=CT25 buses=[l2674027.2, x2674027b.1.0, x2674027b.0.2, ]
New "Transformer.t5328364c" XfmrCode=CT25 buses=[l2692633.3, x2692633c.1.0, x2692633c.0.2, ]
New "Transformer.vreg3_c" phases=1 windings=2 bank=VREG3 XHL=0.1 %loadloss=0.01 buses=[regxfmr_190-8581.3, 190-8581.3, ] conns=[wye, wye, ] kVs=[7.2, 7.2, ] kVAs=[10000, 10000, ] taps=[1, 1.00625, ] buses=[regxfmr_190-8581.3, 190-8581.3, ] conns=[wye, wye, ] kVs=[7.2, 7.2, ] kVAs=[10000, 10000, ] taps=[1, 1.00625, ] wdg=1 %R=0.005 RdcOhms=0.00022032 wdg=2 %R=0.005 RdcOhms=0.00022032 MaxTap=1.1 MinTap=0.9 ppm_antifloat=0
New "Transformer.t5356797c" XfmrCode=CT25 buses=[l2955006.3, x2955006c.1.0, x2955006c.0.2, ]
New "Transformer.t5356798c" XfmrCode=CT25 buses=[l2692600.3, x2692600c.1.0, x2692600c.0.2, ]
New "Transformer.t5356796c" XfmrCode=CT25 buses=[l3235945.3, x3235945c.1.0, x3235945c.0.2, ]
New "Transformer.t5356795c" XfmrCode=CT25 buses=[l2842330.3, x2842330c.1.0, x2842330c.0.2, ]
New "Transformer.t5356794c" XfmrCode=CT25 buses=[l3086002.3, x3086002c.1.0, x3086002c.0.2, ]
New "Transformer.t5251855c" XfmrCode=CT25 buses=[l2730107.3, x2730107c.1.0, x2730107c.0.2, ]
New "Transformer.t5356793c" XfmrCode=CT37 buses=[l3179608.3, x3179608c.1.0, x3179608c.0.2, ]
New "Transformer.t225533215c" XfmrCode=CT10 buses=[l3097861.3, x3097861c.1.0, x3097861c.0.2, ]
New "Transformer.t5339043c" XfmrCode=CT25 buses=[l2804277.3, x2804277c.1.0, x2804277c.0.2, ]
New "Transformer.t5339044c" XfmrCode=CT15 buses=[l3197625.3, x3197625c.1.0, x3197625c.0.2, ]
New "Transformer.t21380453a" XfmrCode=CT15 buses=[l3010557.1, x3010557a.1.0, x3010557a.0.2, ]
New "Transformer.t226115278a" XfmrCode=CT15 buses=[l3157167.1, x3157167a.1.0, x3157167a.0.2, ]
New "Transformer.t5339046a" XfmrCode=CT25 buses=[l2785511.1, x2785511a.1.0, x2785511a.0.2, ]
New "Transformer.t5339049a" XfmrCode=CT25 buses=[l2916602.1, x2916602a.1.0, x2916602a.0.2, ]
New "Transformer.t5339047a" XfmrCode=CT25 buses=[l2973148.1, x2973148a.1.0, x2973148a.0.2, ]
New "Transformer.t5339048a" XfmrCode=CT15 buses=[l3160098.1, x3160098a.1.0, x3160098a.0.2, ]
New "Transformer.t21380500c" XfmrCode=CT25 buses=[l3235242.3, x3235242c.1.0, x3235242c.0.2, ]
New "Transformer.t5442373c" XfmrCode=CT25 buses=[l3141393.3, x3141393c.1.0, x3141393c.0.2, ]
New "Transformer.t5339052c" XfmrCode=CT37 buses=[l3118855.3, x3118855c.1.0, x3118855c.0.2, ]
New "Transformer.t5339051c" XfmrCode=CT25 buses=[l3231255.3, x3231255c.1.0, x3231255c.0.2, ]
New "Transformer.t5338979b" XfmrCode=CT10 buses=[l3066814.2, x3066814b.1.0, x3066814b.0.2, ]
New "Transformer.t5338984a" XfmrCode=CT25 buses=[l2748144.1, x2748144a.1.0, x2748144a.0.2, ]
New "Transformer.t5338983b" XfmrCode=CT5 buses=[l2691965.2, x2691965b.1.0, x2691965b.0.2, ]
New "Transformer.t5338982b" XfmrCode=CT25 buses=[l2785534.2, x2785534b.1.0, x2785534b.0.2, ]
New "Transformer.t226193886b" XfmrCode=CT25 buses=[l2783231.2, x2783231b.1.0, x2783231b.0.2, ]
New "Transformer.t5338995b" XfmrCode=CT10 buses=[l3254227.2, x3254227b.1.0, x3254227b.0.2, ]
New "Transformer.t5338990b" XfmrCode=CT50 buses=[l2673331.2, x2673331b.1.0, x2673331b.0.2, ]
New "Transformer.t5338993b" XfmrCode=CT15 buses=[l2804272.2, x2804272b.1.0, x2804272b.0.2, ]
New "Transformer.t21380156b" XfmrCode=CT15 buses=[l2841641.2, x2841641b.1.0, x2841641b.0.2, ]
New "Transformer.t226193892b" XfmrCode=CT15 buses=[l3176660.2, x3176660b.1.0, x3176660b.0.2, ]
New "Transformer.t5339010b" XfmrCode=CT50 buses=[l2691966.2, x2691966b.1.0, x2691966b.0.2, ]
New "Transformer.t5339016b" XfmrCode=CT25 buses=[l3235273.2, x3235273b.1.0, x3235273b.0.2, ]
New "Transformer.t226193899b" XfmrCode=CT25 buses=[l3082983.2, x3082983b.1.0, x3082983b.0.2, ]
New "Transformer.t226194002b" XfmrCode=CT37 buses=[l2801902.2, x2801902b.1.0, x2801902b.0.2, ]
New "Transformer.t5339008b" XfmrCode=CT15 buses=[l3122835.2, x3122835b.1.0, x3122835b.0.2, ]
New "Transformer.t5339007b" XfmrCode=CT25 buses=[l2916617.2, x2916617b.1.0, x2916617b.0.2, ]
New "Transformer.t28147708b" XfmrCode=CT25 buses=[l2991929.2, x2991929b.1.0, x2991929b.0.2, ]
New "Transformer.t227734175b" XfmrCode=CT25 buses=[l3102793.2, x3102793b.1.0, x3102793b.0.2, ]
New "Transformer.t5339006b" XfmrCode=CT25 buses=[l2916619.2, x2916619b.1.0, x2916619b.0.2, ]
New "Transformer.t21383494b" XfmrCode=CT25 buses=[l2954361.2, x2954361b.1.0, x2954361b.0.2, ]
New "Transformer.t5325474b" XfmrCode=CT25 buses=[l3254228.2, x3254228b.1.0, x3254228b.0.2, ]
New "Transformer.t5323282b" XfmrCode=CT37 buses=[l2897791.2, x2897791b.1.0, x2897791b.0.2, ]
New "Transformer.t5339005b" XfmrCode=CT37 buses=[l2785535.2, x2785535b.1.0, x2785535b.0.2, ]
New "Transformer.t5339004b" XfmrCode=CT25 buses=[l3197653.2, x3197653b.1.0, x3197653b.0.2, ]
New "Transformer.t226193395b" XfmrCode=CT25 buses=[l2726974.2, x2726974b.1.0, x2726974b.0.2, ]
New "Transformer.t5323283b" XfmrCode=CT37 buses=[l2916618.2, x2916618b.1.0, x2916618b.0.2, ]
New "Transformer.t5323284b" XfmrCode=CT25 buses=[l3160113.2, x3160113b.1.0, x3160113b.0.2, ]
New "Transformer.t5323285b" XfmrCode=CT25 buses=[l2804269.2, x2804269b.1.0, x2804269b.0.2, ]
New "Transformer.t5323286b" XfmrCode=CT15 buses=[l2989564.2, x2989564b.1.0, x2989564b.0.2, ]
New "Transformer.t5323287b" XfmrCode=CT15 buses=[l2897789.2, x2897789b.1.0, x2897789b.0.2, ]
New "Transformer.t21383553b" XfmrCode=CT15 buses=[l2935547.2, x2935547b.1.0, x2935547b.0.2, ]
New "Transformer.t5339013b" XfmrCode=CT15 buses=[l2804270.2, x2804270b.1.0, x2804270b.0.2, ]
New "Transformer.t5339011b" XfmrCode=CT15 buses=[l3104145.2, x3104145b.1.0, x3104145b.0.2, ]
New "Transformer.t5339012b" XfmrCode=CT25 buses=[l2973171.2, x2973171b.1.0, x2973171b.0.2, ]
New "Transformer.t5339097b" XfmrCode=CT15 buses=[l3085410.2, x3085410b.1.0, x3085410b.0.2, ]
New "Transformer.t5338997b" XfmrCode=CT50 buses=[l2860499.2, x2860499b.1.0, x2860499b.0.2, ]
New "Transformer.t5338998b" XfmrCode=CT25 buses=[l3254229.2, x3254229b.1.0, x3254229b.0.2, ]
New "Transformer.t5339001b" XfmrCode=CT10 buses=[l3178988.2, x3178988b.1.0, x3178988b.0.2, ]
...
